FoamFile { version 2.0; format ascii; class vectorField; object kinematicCloudPositions; }
3
(
    (0.00105 0.0021 0.000035)
    (0.00105 0.0028 0.000035)
    (0.00105 0.0035 0.000035)
)
