FoamFile
{
    version     2.0;
    format      ascii;
    class       labelField;
    object      origProcId;
}
1
(
0
)
