FoamFile
{
    version     2.0;
    format      ascii;
    class       vectorField;
    object      positions;
}
1
(
(0.25 0.15 0.005)
)
