FoamFile
{
    version     2.0;
    format      ascii;
    class       labelField;
    object      active;
}
1
(
1
)
