FoamFile
{
    version     2.0;
    format      ascii;
    class       scalarField;
    object      rho;
}
1
(
1050
)
