FoamFile
{
    version     2.0;
    format      ascii;
    class       volVectorField;
    object      DUcDt;
}
dimensions      [0 1 -2 0 0 0 0];
internalField   uniform (0 0 0);
boundaryField
{
    walls         { type zeroGradient; }
    top           { type zeroGradient; }
    frontAndBack  { type empty; }
}
